8

F        1.223684   -0.102770    0.000000 
C        0.000000    0.558143    0.000000 
C       -1.122802   -0.450951    0.000000 
H       -2.084290    0.065246    0.000000 
H       -0.028060    1.191265    0.887974 
H       -0.028060    1.191265   -0.887974 
H       -1.067967   -1.082997    0.885745 
H       -1.067967   -1.082997   -0.885745 
