7

C        0.000000    0.463403    0.000000 
O        1.205540    0.374658    0.000000 
H       -0.484415    1.458495    0.000000 
C       -0.936133   -0.711830    0.000000 
H       -0.376435   -1.644095    0.000000 
H       -1.583337   -0.660551    0.878440 
H       -1.583337   -0.660551   -0.878440 
