          26
 
   C          0.00000000      0.00000000     -0.78216596
   C          0.00000000      0.00000000      0.78216596
   C          1.13685895     -0.86573057     -1.33679656
   C          0.18131519      1.41741401     -1.33679656
   C         -1.31817414     -0.55168345     -1.33679656
   C          1.13685895      0.86573057      1.33679656
   C          0.18131519     -1.41741401      1.33679656
   C         -1.31817414      0.55168345      1.33679656
   H          2.10137753     -0.60632401     -0.89602505
   H          0.95640314     -1.92812772     -1.16563611
   H          1.21642453     -0.71505916     -2.41638078
   H          1.19160602      1.79233328     -1.16563611
   H          0.01104713      1.41098413     -2.41638078
   H         -0.52559677      2.12300833     -0.89602505
   H         -1.57578076     -1.51668432     -0.89602505
   H         -2.14800916      0.13579445     -1.16563611
   H         -1.22747167     -0.69592497     -2.41638078
   H          2.10137753      0.60632401      0.89602505
   H          0.95640314      1.92812772      1.16563611
   H          1.21642453      0.71505916      2.41638078
   H          1.19160602     -1.79233328      1.16563611
   H          0.01104713     -1.41098413      2.41638078
   H         -0.52559677     -2.12300833      0.89602505
   H         -1.57578076      1.51668432      0.89602505
   H         -2.14800916     -0.13579445      1.16563611
   H         -1.22747167      0.69592497      2.41638078
