34
XYZ file generated by orca_plot on BaseName=/rds/user/ee301/hpc-work/ORCA/TTM_D1/TTM_D1
  C       0.586696     -0.856302      0.904484
  C       1.976979     -0.914471      0.889277
  C       2.669886     -0.220510     -0.097760
  C       1.990435      0.520101     -1.059946
  C       0.599831      0.557221     -1.024044
  C      -0.172361     -0.122834     -0.045376
  H       2.506246     -1.475111      1.649375
  H       2.528572      1.044053     -1.839710
  C      -1.646351     -0.070114     -0.016858
  C      -2.425774     -1.316373      0.104564
  C      -3.474674     -1.475186      1.048468
  C      -2.184633     -2.453135     -0.711524
  C      -4.216301     -2.645776      1.174641
  C      -2.907031     -3.637512     -0.603118
  C      -3.922477     -3.722955      0.344377
  H      -4.994873     -2.718542      1.923721
  H      -2.690443     -4.468883     -1.262198
  C      -2.338259      1.229163     -0.109547
  C      -1.982264      2.345753      0.692619
  C      -3.411500      1.463558     -1.009812
  C      -2.619725      3.579874      0.608893
  C      -4.070204      2.685268     -1.109898
  C      -3.664110      3.738935     -0.296842
  H      -2.316373      4.393501      1.255493
  H      -4.872061      2.813886     -1.826092
  Cl     -0.166530      1.431807     -2.336234
  Cl     -0.188996     -1.678834      2.244581
  Cl     -0.752006      2.213671      1.935146
  Cl     -3.927550      0.231580     -2.145395
  Cl     -3.850932     -0.213133      2.206101
  Cl     -0.997733     -2.407414     -2.001504
  Cl     -4.476620      5.282722     -0.414845
  Cl     -4.840980     -5.203380      0.494003
  Cl      4.417306     -0.279989     -0.129492
