          35
 
   C         -2.53074639     -0.39678137     -0.66631849
   C         -1.35010674      0.00087746      0.24046958
   C          0.00000000      0.00000000     -0.58792086
   C          1.35010674     -0.00087746      0.24046958
   C          2.53074639      0.39678137     -0.66631849
   C         -1.37933732     -1.00234606      1.39811923
   C         -1.71932887      1.38276498      0.80297653
   C          0.00593418     -1.23102830     -1.50917269
   C         -0.00593418      1.23102830     -1.50917269
   C          1.71932887     -1.38276498      0.80297653
   C          1.37933732      1.00234606      1.39811923
   H         -2.50000555     -1.45018410     -0.94279255
   H         -3.46168918     -0.23048895     -0.12013348
   H         -2.58026313      0.19720243     -1.57896596
   H          2.58026313     -0.19720243     -1.57896596
   H          2.50000555      1.45018410     -0.94279255
   H          3.46168918      0.23048895     -0.12013348
   H         -1.13698553     -2.01258307      1.06679400
   H         -0.70905374     -0.73137782      2.21124330
   H         -2.39130398     -1.03228901      1.80981341
   H         -1.92006157      2.09928500      0.00628125
   H         -2.63799339      1.28664088      1.38696999
   H         -0.96234529      1.80344754      1.45717221
   H         -0.23380995     -2.15175992     -0.97627998
   H         -0.71612196     -1.11143426     -2.31629996
   H          0.98149137     -1.36334716     -1.97591594
   H          0.23380995      2.15175992     -0.97627998
   H          0.71612196      1.11143426     -2.31629996
   H         -0.98149137      1.36334716     -1.97591594
   H          1.92006157     -2.09928500      0.00628125
   H          2.63799339     -1.28664088      1.38696999
   H          0.96234529     -1.80344754      1.45717221
   H          1.13698553      2.01258307      1.06679400
   H          0.70905374      0.73137782      2.21124330
   H          2.39130398      1.03228901      1.80981341
