          35
 
   C          0.00000000     -6.34744683     -0.36782006
   C          0.00000000     -5.08622452      0.48590461
   C          0.00000000     -3.81470172     -0.35131397
   C          0.00000000     -2.54154520      0.48245068
   C          0.00000000     -1.27224235     -0.35833650
   C          0.00000000      0.00000000      0.47746279
   C          0.00000000      1.27224235     -0.35833650
   C          0.00000000      2.54154520      0.48245068
   C          0.00000000      3.81470172     -0.35131397
   C          0.00000000      5.08622452      0.48590461
   C          0.00000000      6.34744683     -0.36782006
   H          0.00000000     -7.24804260      0.24566058
   H         -0.88190907     -6.37605698     -1.00906610
   H          0.88190907     -6.37605698     -1.00906610
   H          0.87759078     -5.08230465      1.13774568
   H         -0.87759078     -5.08230465      1.13774568
   H          0.87736462     -3.81444805     -1.00569542
   H         -0.87736462     -3.81444805     -1.00569542
   H          0.87802836     -2.53884756      1.13583272
   H         -0.87802836     -2.53884756      1.13583272
   H          0.87796826     -1.27381488     -1.01196223
   H         -0.87796826     -1.27381488     -1.01196223
   H          0.87794406      0.00000000      1.13101397
   H         -0.87794406      0.00000000      1.13101397
   H          0.87796826      1.27381488     -1.01196223
   H         -0.87796826      1.27381488     -1.01196223
   H          0.87802836      2.53884756      1.13583272
   H         -0.87802836      2.53884756      1.13583272
   H          0.87736462      3.81444805     -1.00569542
   H         -0.87736462      3.81444805     -1.00569542
   H          0.87759078      5.08230465      1.13774568
   H         -0.87759078      5.08230465      1.13774568
   H          0.88190907      6.37605698     -1.00906610
   H          0.00000000      7.24804260      0.24566058
   H         -0.88190907      6.37605698     -1.00906610
