          32
 
   C         -0.64866384      1.22109311      1.54260964
   C         -1.41161497      0.05329990      1.39458627
   C         -0.74501459     -1.17042658      1.54726246
   C          0.64866384     -1.22109311      1.54260964
   C          1.41161497     -0.05329990      1.39458627
   C          2.79287225     -0.11965381      0.79362496
   C         -2.79287225      0.11965381      0.79362496
   C          2.79287225      0.11965381     -0.79362496
   C         -2.79287225     -0.11965381     -0.79362496
   C          1.41161497      0.05329990     -1.39458627
   C          0.74501459     -1.17042658     -1.54726246
   C         -0.64866384     -1.22109311     -1.54260964
   C         -1.41161497     -0.05329990     -1.39458627
   C         -0.74501459      1.17042658     -1.54726246
   C          0.64866384      1.22109311     -1.54260964
   C          0.74501459      1.17042658      1.54726246
   H         -1.14940407      2.19096306      1.50473774
   H         -1.31521987     -2.10138824      1.51415071
   H          1.14940407     -2.19096306      1.50473774
   H          3.45996766      0.62992327      1.24374326
   H          3.22779696     -1.10941243      0.99231647
   H         -3.22779696      1.10941243      0.99231647
   H         -3.45996766     -0.62992327      1.24374326
   H          3.22779696      1.10941243     -0.99231647
   H          3.45996766     -0.62992327     -1.24374326
   H         -3.45996766      0.62992327     -1.24374326
   H         -3.22779696     -1.10941243     -0.99231647
   H          1.31521987     -2.10138824     -1.51415071
   H         -1.14940407     -2.19096306     -1.50473774
   H         -1.31521987      2.10138824     -1.51415071
   H          1.14940407      2.19096306     -1.50473774
   H          1.31521987      2.10138824      1.51415071
